           5
       0         3.9725091452E+00      0.0000000000E+00      0.0000000000E+00      0.0000000000E+00      3.9725091452E+00      0.0000000000E+00      0.0000000000E+00      0.0000000000E+00      3.9725091452E+00
  Ba             0.0000000000          0.0000000000          0.0000000000
  Ti             1.9862545726          1.9862545726          1.9862545726
  O              1.9862545726          1.9862545726          0.0000000000
  O              1.9862545726          0.0000000000          1.9862545726
  O              0.0000000000          1.9862545726          1.9862545726
